WINTER Field Catalog Aircraft Products [(NCAR-EOL)]  	  http://catalog.eol.ucar.edu/winter/aircraft 
Document  	  http://catalog.eol.ucar.edu/winter 
WINTER Field Catalog Missions [(NCAR-EOL)]  	  http://catalog.eol.ucar.edu/winter/tools/missions 
Document  	  http://catalog.eol.ucar.edu/winter 
1s Merged dataset of all C-130 observations and GEOS-Chem near-realtime simulations for WINTER [Jaegle, Lyatt and V. Shah (U. Washington)]  	  http://data.eol.ucar.edu/codiac/dss/id=483.026 
Document  	  http://data.eol.ucar.edu/datafile/nph-get/483.026/MergedDataREADME.pdf 
60s Merged dataset of all C-130 observations and GEOS-Chem near-realtime simulations for WINTER [Jaegle, Lyatt and V. Shah (U. Washington)]  	  http://data.eol.ucar.edu/codiac/dss/id=483.025 
Document  	  http://data.eol.ucar.edu/datafile/nph-get/483.025/MergedDataREADME.pdf 
AeroLaser Vacuum Ultra Violet (VUV) Fluorescence In Situ Carbon monoxide (CO) mixing ratio [Campos, Teresa (NCAR-ESL-CARI, NCAR-RAF)]  	  http://data.eol.ucar.edu/codiac/dss/id=483.005 
Airborne Ring-down Nitrogen Oxide Laser Detector (ARNOLD) Data [Brown, Steve (NOAA)]  	  http://data.eol.ucar.edu/codiac/dss/id=483.012 
Downward-Looking Digital Camera Imagery [Beaton, S. (NCAR-EOL-RAF)]  	  http://data.eol.ucar.edu/codiac/dss/id=483.015 
Document  	  https://www.eol.ucar.edu/node/11646 
Downward-Looking Digital Camera Movies - preliminary [/NCAR-EOL]  	  http://data.eol.ucar.edu/codiac/dss/id=483.028 
Document  	  https://www.eol.ucar.edu/node/11646 
Flight Tracks (Google Earth .kml files) [(NCAR-EOL-RAF)]  	  http://data.eol.ucar.edu/codiac/dss/id=483.003 
Forward-Looking Digital Camera Imagery [Beaton, S. (NCAR-EOL-RAF)]  	  http://data.eol.ucar.edu/codiac/dss/id=483.014 
Document  	  https://www.eol.ucar.edu/node/11646 
Forward-Looking Digital Camera Movies - preliminary [/NCAR-EOL]  	  http://data.eol.ucar.edu/codiac/dss/id=483.027 
Document  	  https://www.eol.ucar.edu/node/11646 
HIAPER Atmospheric Radiation Package (HARP) CCD Actinic Flux Spectrometers Photolysis Frequencies [Hall, Sam (NCAR-ACD)]  	  http://data.eol.ucar.edu/codiac/dss/id=483.011 
High Rate (HRT - 25 sps) Navigation, State Parameter, and Microphysics Flight-Level Data [[NCAR-EOL]]  	  http://data.eol.ucar.edu/codiac/dss/id=483.038 
In Situ Chemiluminescence NO, NOy, O3 Data [Weinheimer, Andrew (NCAR-ESL)]  	  http://data.eol.ucar.edu/codiac/dss/id=483.007 
In-Situ Airborne Formaldehyde (ISAF) Data [Hanisco, Tom and Josh DiGangi (NASA GSFC, NASA LARC)]  	  http://data.eol.ucar.edu/codiac/dss/id=483.018 
Low Rate (LRT - 1 sps) Navigation, State Parameter, and Microphysics Flight-Level Data [(NCAR-EOL)]  	  http://data.eol.ucar.edu/codiac/dss/id=483.002 
Low Rate (LRT - 1 sps) Navigation, State Parameter, and Microphysics Flight-Level Data - ICARTT format [(NCAR-EOL-RAF)]  	  http://data.eol.ucar.edu/codiac/dss/id=483.004 
NH3 Detector data [Green, Jaime R., Marc Fiddler [NC A&T State University], J. Brian Leen, Xu Du [Los Gatos Research Inc.]]  	  http://data.eol.ucar.edu/codiac/dss/id=483.030 
Document  	  http://data.eol.ucar.edu/datafile/nph-get/483.030/Read-me_for_NH3_WINTER_2015.pdf 
NOAA pulsed ultraviolet fluorescence SO2 data [Green, Jaime R., Marc Fiddler, John S. Holloway (NOAA/CSD)]  	  http://data.eol.ucar.edu/codiac/dss/id=483.020 
PICARRO G1301-f In Situ Carbon dioxide (CO2) mixing ratio, Methane (CH4) data [Campos, Teresa (NCAR-ESL-CARI, NCAR-RAF)]  	  http://data.eol.ucar.edu/codiac/dss/id=483.006 
PILS-IC Aerosol Fast anions [Weber, Rodney (GT)]  	  http://data.eol.ucar.edu/codiac/dss/id=483.019 
PILS2 (PILS with Fraction Collector) [Sullivan, Amy (CSU)]  	  http://data.eol.ucar.edu/codiac/dss/id=483.037 
SAGA-rate Merged dataset of all C-130 observations and GEOS-Chem near-realtime simulations for WINTER [Jaegle, Lyatt and V. Shah (U. Washington)]  	  http://data.eol.ucar.edu/codiac/dss/id=483.032 
Document  	  http://data.eol.ucar.edu/datafile/nph-get/483.032/MergedDataREADME.pdf 
Thermal Dissociation Laser Induced Fluorescence (TD-LIF) of Nitrogen Dioxide and related compounds data [Cohen, Ronald (UC Berkeley)]  	  http://data.eol.ucar.edu/codiac/dss/id=483.021 
Time-of-Flight Aerosol Mass Spectrometer 1-Second Data [Jimenez, Jose (CU)]  	  http://data.eol.ucar.edu/codiac/dss/id=483.009 
Time-of-Flight Aerosol Mass Spectrometer 60-Second Data [Jimenez, Jose (CU)]  	  http://data.eol.ucar.edu/codiac/dss/id=483.036 
Time-of-Flight Aerosol Mass Spectrometer 60-second PMF Raw Data [Jason Schroder]  	  https://data.eol.ucar.edu/dataset/483.039 
Time-of-Flight Aerosol Mass Spectrometer Data - size segregated [Jimenez, Jose, Jason C. Schroder, Pedro Campuzano-Jost /(CU)]  	  http://data.eol.ucar.edu/codiac/dss/id=483.010 
Trace Organic Gas Analyzer (TOGA) VOC Data [Apel, Eric (NCAR-ACD)]  	  http://data.eol.ucar.edu/codiac/dss/id=483.008 
UNH Bulk aerosol ionic composition [Dibb, Jack (UNH)]  	  http://data.eol.ucar.edu/codiac/dss/id=483.022 
UW-High Resolution Time of Flight Mass Spectrometer - CIMS1 [Thornton, Joel A. (UW)]  	  http://data.eol.ucar.edu/codiac/dss/id=483.023 
UW-High Resolution Time of Flight Mass Spectrometer - CIMS2 [Veres, Patrick R. (NOAA/CSD)]  	  http://data.eol.ucar.edu/codiac/dss/id=483.016 
Purdue University ALAR Beechcraft Duchess 1 sec Averaged Winds and Chemical Species Data [Shepson, Paul and Olivia Salmon (Purdue University)]  	  http://data.eol.ucar.edu/codiac/dss/id=483.035  
Purdue University ALAR Beechcraft Duchess 50 Hz Turbulence Data [Shepson, Paul and Olivia Salmon (Purdue University)]  	  http://data.eol.ucar.edu/codiac/dss/id=483.034 
UMD Trace Gases and Aerosol Data [Ren, Xinrong and Russ Dickerson (Univ of Maryland)]  	  http://data.eol.ucar.edu/codiac/dss/id=483.033 
WINTER Chat Logs [(NCAR-EOL)]  	  http://data.eol.ucar.edu/codiac/dss/id=483.029 
WINTER Field Catalog Aircraft Products [(NCAR-EOL)]  	  http://catalog.eol.ucar.edu/winter/aircraft 
Document  	  http://catalog.eol.ucar.edu/winter 
WINTER Field Catalog Missions [(NCAR-EOL)]  	  http://catalog.eol.ucar.edu/winter/tools/missions 
Document  	  http://catalog.eol.ucar.edu/winter 
Document  	  http://catalog.eol.ucar.edu/winter 
WINTER Field Catalog Radar Products [(NCAR-EOL)]  	  http://catalog.eol.ucar.edu/winter/radar 
Document  	  http://catalog.eol.ucar.edu/winter 
WINTER Field Catalog Reports [(NCAR-EOL)]  	  http://catalog.eol.ucar.edu/winter/reports 
Document  	  http://catalog.eol.ucar.edu/winter 
WINTER Field Catalog Satellite Products [(NCAR-EOL)]  	  http://catalog.eol.ucar.edu/winter/satellite 
Document  	  http://catalog.eol.ucar.edu/winter 
WINTER Field Catalog Surface Products [(NCAR-EOL)]  	  http://catalog.eol.ucar.edu/winter/surface 
Document  	  http://catalog.eol.ucar.edu/winter 
WINTER Field Catalog Upper Air Products [(NCAR-EOL)]  	  http://catalog.eol.ucar.edu/winter/upperair 
Document  	  http://catalog.eol.ucar.edu/winter 
2011 National Emissions Inventory Data [(EPA)]  	  https://www.epa.gov/air-emissions-inventories/2011-national-emissions-inventory-nei-data 
In-Situ Airborne Formaldehyde (ISAF) Data [Hanisco, Tom and Josh DiGangi (NASA GSFC, NASA LARC)]  	  http://data.eol.ucar.edu/codiac/dss/id=483.018 
NOAA pulsed ultraviolet fluorescence SO2 data [Green, Jaime R., Marc Fiddler, John S. Holloway (NOAA/CSD)]  	  http://data.eol.ucar.edu/codiac/dss/id=483.020 
PILS-IC Aerosol Fast anions [Weber, Rodney (GT)]  	  http://data.eol.ucar.edu/codiac/dss/id=483.019 
Time-of-Flight Aerosol Mass Spectrometer 60-second PMF Raw Data [Jason Schroder]  	  https://data.eol.ucar.edu/dataset/483.039 
UMD Trace Gases and Aerosol Data [Ren, Xinrong and Russ Dickerson (Univ of Maryland)]  	  http://data.eol.ucar.edu/codiac/dss/id=483.033 
Ohio Mines GIS Data [(Ohio Department of Natural Resources)]  	  https://gis.ohiodnr.gov/MapViewer/?config=OhioMines 
Ohio Oil and Gas Wells GIS Data [(Ohio Department of Natural Resources)]  	  https://gis.ohiodnr.gov/MapViewer/?config=oilgaswells 
West Virginia Coal Mine GIS Data [(West Virginia Geological and Economic Survey)]  	  http://www.wvgs.wvnet.edu/GIS/CBMP/all_mining.html 
Document  	  http://www.wvgs.wvnet.edu/www/coal/cbmp/coalims.html 
West Virginia Oil and Gas Well GIS Data [(West Virginia Geological and Economic Survey)]  	  http://ims.wvgs.wvnet.edu/WVOG/viewer.htm 
GTS LDM Surface Hourly Observations (Global, GEMPAK) [/NCAR-EOL]  	  http://data.eol.ucar.edu/codiac/dss/id=100.011 
Document  	  http://data.eol.ucar.edu/datafile/nph-get/100.011/GTS_LDM_surface_hourly.html 
GTS LDM Surface Synoptic Observations (Global, GEMPAK) [/NCAR-EOL]  	  http://data.eol.ucar.edu/codiac/dss/id=100.012 
Document  	  http://data.eol.ucar.edu/datafile/nph-get/100.012/GTS_LDM_surface_synoptic.html 
LDM Surface METAR Data (METAR format) [/NCAR-EOL]  	  http://data.eol.ucar.edu/codiac/dss/id=100.013 
Document  	  http://data.eol.ucar.edu/datafile/nph-get/100.013/LDM_SFC_METAR.html 
NOAA/ESRL/GSD MADIS Data including MesoWest (netCDF format) [/NCAR-EOL]  	  http://data.eol.ucar.edu/codiac/dss/id=100.001 
Document  	  http://madis.noaa.gov 
WINTER Field Catalog Surface Products [(NCAR-EOL)]  	  http://catalog.eol.ucar.edu/winter/surface 
Document  	  http://catalog.eol.ucar.edu/winter 
Document  	  http://catalog.eol.ucar.edu/winter 
Downward-Looking Digital Camera Imagery [Beaton, S. (NCAR-EOL-RAF)]  	  http://data.eol.ucar.edu/codiac/dss/id=483.015 
Document  	  https://www.eol.ucar.edu/node/11646 
Downward-Looking Digital Camera Movies - preliminary [/NCAR-EOL]  	  http://data.eol.ucar.edu/codiac/dss/id=483.028 
Document  	  https://www.eol.ucar.edu/node/11646 
Forward-Looking Digital Camera Imagery [Beaton, S. (NCAR-EOL-RAF)]  	  http://data.eol.ucar.edu/codiac/dss/id=483.014 
Document  	  https://www.eol.ucar.edu/node/11646 
Forward-Looking Digital Camera Movies - preliminary [/NCAR-EOL]  	  http://data.eol.ucar.edu/codiac/dss/id=483.027 
Document  	  https://www.eol.ucar.edu/node/11646 
WINTER Field Catalog Radar Products [(NCAR-EOL)]  	  http://catalog.eol.ucar.edu/winter/radar 
Document  	  http://catalog.eol.ucar.edu/winter 
Aura OMI Data [(NASA/GSFC)]  	  http://disc.sci.gsfc.nasa.gov/Aura/data-holdings/OMI 
Aura TES Data [(NASA/JPL)]  	  http://tes.jpl.nasa.gov/data/ 
WINTER Field Catalog Satellite Products [(NCAR-EOL)]  	  http://catalog.eol.ucar.edu/winter/satellite 
Document  	  http://catalog.eol.ucar.edu/winter 
WINTER Field Catalog Upper Air Products [(NCAR-EOL)]  	  http://catalog.eol.ucar.edu/winter/upperair 
Document  	  http://catalog.eol.ucar.edu/winter 
GTS LDM Sounding Observations (Global, GEMPAK) [/NCAR-EOL]  	  http://data.eol.ucar.edu/codiac/dss/id=100.010 
National Weather Service High Resolution Radiosonde Data (ESC Format) [(NCAR-EOL)]  	  http://data.eol.ucar.edu/codiac/dss/id=483.031 
Document  	  http://data.eol.ucar.edu/datafile/nph-get/483.031/readme_WINTER_NWS_radiosonde.pdf 
